src/mat_files/rbts_bus5.m
function mpc = rbts_bus5
%CASE9    Power flow data for 9 bus, 3 generator case.
%   Please see CASEFORMAT for details on the case file format.
%
%   Based on data from Joe H. Chow's book, p. 70.

%   MATPOWER
%   $Id: case9.m,v 1.11 2010/03/10 18:08:14 ray Exp $

%% MATPOWER Case Format : Version 2
mpc.version = '2';

%%-----  Power Flow Data  -----%%
%% system MVA base
mpc.baseMVA = 100;

%% bus data
%	bus_i	type	Pd	Qd	Gs	Bs	area	Vm	Va	baseKV	zone	Vmax	Vmin
mpc.bus = [
	1	1	0.0	0.0	0	0	1	1	0	138.0	1	1.05	0.95;
	2	1	0.0	0.0	0	0	1	1	0	138.0	1	1.05	0.95;
	3	1	0.0	0.0	0	0	1	1	0	138.0	1	1.05	0.95;
	4	1	0.0	0.0	0	0	1	1	0	138.0	1	1.05	0.95;
	5	3	0.0	0.0	0	0	1	1	0	138.0	1	1.05	0.95;
	6	1	0.0	0.0	0	0	1	1	0	138.0	1	1.05	0.95;
	7	1	0.0	0.0	0	0	1	1	0	138.0	1	1.05	0.95;
	8	1	0.0	0.0	0	0	1	1	0	138.0	1	1.05	0.95;
	9	1	0.0	0.0	0	0	1	1	0	138.0	1	1.05	0.95;
	10	1	0.0	0.0	0	0	1	1	0	138.0	1	1.05	0.95;
	11	3	0.0	0.0	0	0	1	1	0	138.0	1	1.05	0.95;
	12	1	0.0	0.0	0	0	1	1	0	138.0	1	1.05	0.95;
	13	1	0.0	0.0	0	0	1	1	0	138.0	1	1.05	0.95;
	14	1	0.0	0.0	0	0	1	1	0	138.0	1	1.05	0.95;
	15	1	0.0	0.0	0	0	1	1	0	138.0	1	1.05	0.95;
	16	3	0.0	0.0	0	0	1	1	0	138.0	1	1.05	0.95;
	17	1	0.0	0.0	0	0	1	1	0	138.0	1	1.05	0.95;
	18	1	0.0	0.0	0	0	1	1	0	138.0	1	1.05	0.95;
	19	1	0.0	0.0	0	0	1	1	0	138.0	1	1.05	0.95;
	20	1	0.0	0.0	0	0	1	1	0	138.0	1	1.05	0.95;
	21	3	0.0	0.0	0	0	1	1	0	138.0	1	1.05	0.95;
	22	1	0.74	0.0	0	0	1	1	0	138.0	1	1.05	0.95;
	23	1	0.74	0.0	0	0	1	1	0	138.0	1	1.05	0.95;
	24	1	1.11	0.0	0	0	1	1	0	138.0	1	1.05	0.95;
	25	1	0.74	0.0	0	0	1	1	0	138.0	1	1.05	0.95;
	26	1	1.11	0.0	0	0	1	1	0	138.0	1	1.05	0.95;
	27	1	0.76	0.0	0	0	1	1	0	138.0	1	1.05	0.95;
	28	1	0.76	0.0	0	0	1	1	0	138.0	1	1.05	0.95;
	29	1	0.57	0.0	0	0	1	1	0	138.0	1	1.05	0.95;
	30	1	0.62	0.0	0	0	1	1	0	138.0	1	1.05	0.95;
	31	1	0.57	0.0	0	0	1	1	0	138.0	1	1.05	0.95;
	32	1	0.57	0.0	0	0	1	1	0	138.0	1	1.05	0.95;
	33	1	0.57	0.0	0	0	1	1	0	138.0	1	1.05	0.95;
	34	1	1.11	0.0	0	0	1	1	0	138.0	1	1.05	0.95;
	35	1	0.74	0.0	0	0	1	1	0	138.0	1	1.05	0.95;
	36	1	0.74	0.0	0	0	1	1	0	138.0	1	1.05	0.95;
	37	1	1.11	0.0	0	0	1	1	0	138.0	1	1.05	0.95;
	38	1	0.62	0.0	0	0	1	1	0	138.0	1	1.05	0.95;
	39	1	0.74	0.0	0	0	1	1	0	138.0	1	1.05	0.95;
	40	1	0.74	0.0	0	0	1	1	0	138.0	1	1.05	0.95;
	41	1	0.57	0.0	0	0	1	1	0	138.0	1	1.05	0.95;
	42	1	0.74	0.0	0	0	1	1	0	138.0	1	1.05	0.95;
	43	1	0.74	0.0	0	0	1	1	0	138.0	1	1.05	0.95;
	44	1	1.11	0.0	0	0	1	1	0	138.0	1	1.05	0.95;
	45	1	0.74	0.0	0	0	1	1	0	138.0	1	1.05	0.95;
	46	1	0.76	0.0	0	0	1	1	0	138.0	1	1.05	0.95;
	47	1	0.76	0.0	0	0	1	1	0	138.0	1	1.05	0.95;
];

%% generator data
%	bus	Pg	Qg	Qmax	Qmin	Vg	mBase	status	Pmax	Pmin	Pc1	Pc2	Qc1min	Qc1max	Qc2min	Qc2max	ramp_agc	ramp_10	ramp_30	ramp_q	apf
mpc.gen = [
	5	6.01	0.0	9900.0	-9900.0	1	100	1	1000.0	0.0	0	0	0	0	0	0	0	0	0	0	0;
	11	4.04	0.0	9900.0	-9900.0	1	100	1	1000.0	0.0	0	0	0	0	0	0	0	0	0	0	0;
	16	4.72	0.0	9900.0	-9900.0	1	100	1	1000.0	0.0	0	0	0	0	0	0	0	0	0	0	0;
	21	5.46	0.0	9900.0	-9900.0	1	100	1	1000.0	0.0	0	0	0	0	0	0	0	0	0	0	0;
];

%% branch data
%	fbus	tbus	r	x	b	rateA	rateB	rateC	ratio	angle	status	angmin	angmax
mpc.branch = [
	1	22	0.0701	0.205	0.0	15.0	15.0	15.0	0	0	1	-360	360;
	2	24	0.0569	0.166	0.0	15.0	15.0	15.0	0	0	1	-360	360;
	2	23	0.0438	0.128	0.0	15.0	15.0	15.0	0	0	1	-360	360;
	2	1	0.0701	0.205	0.0	15.0	15.0	15.0	0	0	1	-360	360;
	3	25	0.0438	0.128	0.0	15.0	15.0	15.0	0	0	1	-360	360;
	3	2	0.0569	0.166	0.0	15.0	15.0	15.0	0	0	1	-360	360;
	3	26	0.0701	0.205	0.0	15.0	15.0	15.0	0	0	1	-360	360;
	4	3	0.0569	0.166	0.0	15.0	15.0	15.0	0	0	1	-360	360;
	4	27	0.0701	0.205	0.0	15.0	15.0	15.0	0	0	1	-360	360;
	4	28	0.0701	0.205	0.0	15.0	15.0	15.0	0	0	1	-360	360;
	5	4	0.0438	0.128	0.0	15.0	15.0	15.0	0	0	1	-360	360;
	6	30	0.0438	0.128	0.0	15.0	15.0	15.0	0	0	1	-360	360;
	6	29	0.0569	0.166	0.0	15.0	15.0	15.0	0	0	1	-360	360;
	7	6	0.0701	0.205	0.0	15.0	15.0	15.0	0	0	1	-360	360;
	7	31	0.0569	0.166	0.0	15.0	15.0	15.0	0	0	1	-360	360;
	8	7	0.0438	0.128	0.0	15.0	15.0	15.0	0	0	1	-360	360;
	8	32	0.002	0.008	0.0	15.0	15.0	15.0	0	0	1	-360	360;
	9	33	0.0569	0.166	0.0	15.0	15.0	15.0	0	0	1	-360	360;
	9	8	0.0569	0.166	0.0	15.0	15.0	15.0	0	0	1	-360	360;
	10	34	0.0438	0.128	0.0	15.0	15.0	15.0	0	0	1	-360	360;
	10	9	0.0438	0.128	0.0	15.0	15.0	15.0	0	0	1	-360	360;
	11	10	0.0569	0.166	0.0	15.0	15.0	15.0	0	0	1	-360	360;
	12	36	0.0438	0.128	0.0	8.8	8.8	8.8	0	0	1	-360	360;
	12	35	0.0701	0.205	0.0	8.8	8.8	8.8	0	0	1	-360	360;
	13	37	0.0701	0.205	0.0	8.8	8.8	8.8	0	0	1	-360	360;
	13	12	0.0569	0.166	0.0	8.8	8.8	8.8	0	0	1	-360	360;
	14	39	0.0569	0.166	0.0	8.8	8.8	8.8	0	0	1	-360	360;
	14	38	0.0438	0.166	0.0	8.8	8.8	8.8	0	0	1	-360	360;
	14	13	0.0569	0.166	0.0	8.8	8.8	8.8	0	0	1	-360	360;
	15	14	0.0438	0.128	0.0	8.8	8.8	8.8	0	0	1	-360	360;
	15	40	0.0701	0.128	0.0	8.8	8.8	8.8	0	0	1	-360	360;
	16	15	0.0701	0.128	0.0	8.8	8.8	8.8	0	0	1	-360	360;
	17	42	0.0438	0.128	0.0	8.8	8.8	8.8	0	0	1	-360	360;
	17	41	0.0701	0.205	0.0	8.8	8.8	8.8	0	0	1	-360	360;
	18	43	0.0569	0.166	0.0	8.8	8.8	8.8	0	0	1	-360	360;
	18	17	0.0701	0.205	0.0	8.8	8.8	8.8	0	0	1	-360	360;
	19	45	0.0569	0.166	0.0	8.8	8.8	8.8	0	0	1	-360	360;
	19	44	0.0701	0.205	0.0	8.8	8.8	8.8	0	0	1	-360	360;
	19	18	0.0438	0.128	0.0	8.8	8.8	8.8	0	0	1	-360	360;
	20	47	0.0701	0.205	0.0	8.8	8.8	8.8	0	0	1	-360	360;
	20	46	0.0438	0.128	0.0	8.8	8.8	8.8	0	0	1	-360	360;
	20	19	0.0438	0.128	0.0	8.8	8.8	8.8	0	0	1	-360	360;
	21	20	0.0569	0.166	0.0	8.8	8.8	8.8	0	0	1	-360	360;
];
